Circuit: * C:\Users\Roman Schneider\Documents\Studium ST\HS15\Projektarbeit\Versuche\LT\Brückenschaltung mit Kondensator.asc

.OP point found by inspection.

Date: Sat Dec 05 13:03:32 2015
Total elapsed time: 0.129 seconds.

tnom = 27
temp = 27
method = modified trap
totiter = 12222
traniter = 12222
tranpoints = 4024
accept = 2752
rejected = 1272
matrix size = 8
fillins = 5
solver = Normal
Matrix Compiler1: 572 bytes object code size  0.4/0.1/[0.1]
Matrix Compiler2: 656 bytes object code size  0.1/0.2/[0.0]


