Circuit: * C:\Users\Roman Schneider\Documents\Studium ST\HS15\Projektarbeit\Versuche\LT\Brückenschaltung mit Kondensator und Begrenzung.asc

.OP point found by inspection.

Date: Sat Dec 05 13:22:16 2015
Total elapsed time: 0.129 seconds.

tnom = 27
temp = 27
method = modified trap
totiter = 5949
traniter = 5949
tranpoints = 1941
accept = 1518
rejected = 423
matrix size = 10
fillins = 5
solver = Normal
Matrix Compiler1: 672 bytes object code size  0.3/0.2/[0.1]
Matrix Compiler2:      64 opcodes  0.1/[0.1]/0.1


