Circuit: * C:\Users\Roman Schneider\Documents\Studium ST\HS15\Projektarbeit\Versuche\LT\Brückenschaltung.asc

.OP point found by inspection.

Date: Sat Dec 05 13:01:30 2015
Total elapsed time: 0.155 seconds.

tnom = 27
temp = 27
method = modified trap
totiter = 11474
traniter = 11474
tranpoints = 3844
accept = 2688
rejected = 1156
matrix size = 8
fillins = 5
solver = Normal
Matrix Compiler1: 572 bytes object code size  0.6/0.3/[0.1]
Matrix Compiler2: 656 bytes object code size  0.2/0.3/[0.1]


